
#======================================================================
# CRYSTAL DATA
#----------------------------------------------------------------------
data_VESTA_phase_1

_chemical_name_common                  ''
_cell_length_a                         5.675443
_cell_length_b                         5.675443
_cell_length_c                         5.675443
_cell_angle_alpha                      30.891943
_cell_angle_beta                       30.891945
_cell_angle_gamma                      30.891945
_cell_volume                           42.742013
_space_group_name_H-M_alt              'P 1'
_space_group_IT_number                 1

loop_
_space_group_symop_operation_xyz
   'x, y, z'

loop_
   _atom_site_label
   _atom_site_occupancy
   _atom_site_fract_x
   _atom_site_fract_y
   _atom_site_fract_z
   _atom_site_adp_type
   _atom_site_B_iso_or_equiv
   _atom_site_type_symbol
   Na1         1.0     0.000000     0.000000     0.000000    Biso  1.000000 Na
   Ga1         1.0     0.500000     0.500000    -0.500000    Biso  1.000000 Ga
   O1          1.0     0.232656     0.232670    -0.767098    Biso  1.000000 O
   O2          1.0    -0.232656    -0.232670     0.767098    Biso  1.000000 O
